Circuit: * C:\users\jazz\My Documents\LTspiceXVII\Link to Simulation\Skin_Filtering\SkinFilteringEffect.asc

WARNING: Node N003 is floating.

Direct Newton iteration for .op point succeeded.

Date: Wed Jan 31 14:02:00 2024
Total elapsed time: 0.027 seconds.

tnom = 27
temp = 27
method = modified trap
totiter = 729
traniter = 726
tranpoints = 364
accept = 345
rejected = 19
matrix size = 9
fillins = 2
solver = Normal
Matrix Compiler1: 454 bytes object code size  0.3/0.2/[0.2]
Matrix Compiler2: off  [0.2]/0.2/0.2

