Circuit: * Z:\home\jazz\Projects\EMG-Controlled-Prosthetic\Simulation\Skin_Filtering\SkinFilteringEffect.asc

WARNING: Node N001 is floating.

Direct Newton iteration for .op point succeeded.

Date: Mon Apr 15 16:28:54 2024
Total elapsed time: 0.018 seconds.

tnom = 27
temp = 27
method = modified trap
totiter = 2045
traniter = 2042
tranpoints = 1022
accept = 1022
rejected = 0
matrix size = 6
fillins = 2
solver = Normal
Matrix Compiler1: 412 bytes object code size  0.2/0.1/[0.1]
Matrix Compiler2: off  [0.1]/0.1/0.1

