Circuit: * C:\users\jazz\My Documents\LTspiceXVII\Link to Simulation\HalfWaveRectifier\HalfWaveRectifierTest.asc

Direct Newton iteration for .op point succeeded.

Date: Wed Jan 31 13:57:02 2024
Total elapsed time: 0.383 seconds.

tnom = 27
temp = 27
method = modified trap
totiter = 47871
traniter = 47850
tranpoints = 19686
accept = 15145
rejected = 4541
matrix size = 17
fillins = 11
solver = Normal
Matrix Compiler1: 1.37 KB object code size  0.5/0.3/[0.3]
Matrix Compiler2: off  [0.3]/0.5/0.4

