Circuit: * Z:\home\jazz\Projects\EMG-Controlled-Prosthetic\Simulation\DC_Bias_With_HPFilter_Test\DCBIAS_WithFilter_Test.asc

.OP point found by inspection.

Date: Mon Mar 04 15:20:17 2024
Total elapsed time: 0.047 seconds.

tnom = 27
temp = 27
method = modified trap
totiter = 7248
traniter = 7248
tranpoints = 3625
accept = 2191
rejected = 1434
matrix size = 6
fillins = 0
solver = Normal
Matrix Compiler1:       9 opcodes  0.1/[0.1]/0.1
Matrix Compiler2: 380 bytes object code size  0.1/0.1/[0.1]

