Circuit: * Z:\home\jazz\Projects\EMG-Controlled-Prosthetic\Simulation\DC_Bias_With_HPFilter_Test\DCBIAS_WithFilter_Test.asc

.step x=0.5
.step x=0.75
.step x=1
.step x=1.25
.step x=1.5

Date: Thu Mar 14 17:13:07 2024
Total elapsed time: 0.029 seconds.

tnom = 27
temp = 27
method = trap
totiter = 0
traniter = 0
tranpoints = 0
accept = 0
rejected = 0
matrix size = 6
fillins = 2
solver = Normal

